LAMMPS (2 Jun 2022)

# ----------------- Init Section -----------------

include "benzene_01.in.init"
# Input variables.
variable run string benzene_01
variable ts     equal 10      # timestep
variable tf     equal 300.    # Equilibrium temperature
variable p      equal 1.      # Equilibrium pressure
variable cutoff equal 14.     # For interactions in real space.
variable skin   equal 4.      # Skin distance for neighbour list.
variable cl     equal 400     # correlation length
variable s      equal 5       # sample interval
variable prod   equal 100000  # Production steps

# PBC
boundary p p p

# Force field setup.
units real
atom_style hybrid molecular ellipsoid
bond_style ellipsoid
special_bonds lj/coul 0.0 0.2 0.5
# gamma upsilon mu lj_cutoff coul_cutoff
pair_style molc/long 1 1 -3 14 14

# Neighbour list.
neighbor        4 bin
neigh_modify    check yes

# Create a random seed.
shell dd if=/dev/urandom of=/tmp/random_number count=2 bs=1
shell od -An -t dI /tmp/random_number > /tmp/seed
variable s1 file /tmp/seed
variable s2 equal abs(v_s1)
Seed 25838
variable r1 equal random(10000,1000000,25838)
variable r format r1 %.0f

# Create a random seed.
shell dd if=/dev/urandom of=/tmp/random_number count=2 bs=1
shell od -An -t dI /tmp/random_number > /tmp/seed
variable s1 file /tmp/seed
variable s2 equal abs(v_s1)
Seed 25838
variable r1 equal random(10000,1000000,25838)
variable r format r1 %.0f

# ----------------- Atom Definition Section -----------------

read_data "benzene_01.data"
Reading data file ...
  orthogonal box = (-26.8236 -26.8236 -26.8236) to (26.8236 26.8236 26.8236)
  reading atoms ...
  1000 atoms
  1000 ellipsoids
Finding 1-2 1-3 1-4 neighbors ...
     0 = max # of 1-2 neighbors
     0 = max # of 1-3 neighbors
     0 = max # of 1-4 neighbors
     1 = max # of special neighbors

# ----------------- Settings Section -----------------

include "benzene_01.in.settings"
mass 1 78.1134

pair_coeff 1 1 2.3612 3.7501 0.26387 0.26387 1. 4 0.000000    0.000000    0.000000   -0.585 0.000000    2.100630    0.000000    0.195 1.819199   -1.050315    0.000000    0.195 -1.819199   -1.050315    0.000000    0.195

# Force field setup.
kspace_style pppm/molc 1e-4

# ----------------- Run Section -----------------

include "benzene_01.in.run"

# Set the velocity to the final temperature.
velocity all create 300 $r dist gaussian
velocity all create 300 511147 dist gaussian
# Derived variables.
# thermo interval.
variable d       equal 400*$s
variable d       equal 400*5
# dump interval ("sample interval" frames).
variable dcycle  equal 100000/$s
variable dcycle  equal 100000/5
variable tcouple equal 10*100
variable pcouple equal 10*1000

# Physical observables.
compute q               all property/atom quatw quati quatj quatk
compute diameter        all property/atom shapex shapey shapez
compute temp_trasl      all temp
compute temp_rototrasl  all temp/asphere dof all
compute press_trasl     all pressure temp_trasl
compute inter           all inter/molc kspace yes
compute msqdis all msd com yes

# Output.
thermo          $d
thermo          2000
thermo_style custom step etotal evdwl ecoul elong ebond ke pe temp press vol density c_inter c_msqdis[*] cpu
thermo_modify temp temp_rototrasl press press_trasl flush yes

# Trajectory.
dump TRJ all custom 20000 benzene_01.dump id type xu yu zu c_q[1] c_q[2] c_q[3] c_q[4] c_diameter[1] c_diameter[2] c_diameter[3] vx vy vz angmomx angmomy angmomz mol
dump_modify TRJ colname c_q[1] quatw colname c_q[2] quati colname c_q[3] quatj colname c_q[4] quatk

# Thermalisation and relaxation, NPT ensemble.
timestep 	 10
fix             NPH all nph/asphere iso 1 1 10000
fix_modify      NPH press press_trasl
fix             TEMP all langevin 300 300 1000 $r angmom 0.9
fix             TEMP all langevin 300 300 1000 525490 angmom 0.9
fix_modify      TEMP temp temp_rototrasl
run    100000

CITE-CITE-CITE-CITE-CITE-CITE-CITE-CITE-CITE-CITE-CITE-CITE-CITE

Your simulation uses code contributions which should be cited:

- USER-MOLC package:

Article{C9CP04120F,
  author = {Ricci, Matteo and Roscioni, Otello Maria and Querciagrossa, Lara and Zannoni, Claudio},
  title  = {MOLC. A reversible coarse grained approach using anisotropic beads for the modelling of organic functional materials},
  journal  = {Phys. Chem. Chem. Phys.},
  year  = 2019,
  volume = 21,
  issue  = 47,
  pages  = {26195-26211},
  publisher = {The Royal Society of Chemistry},
  doi  = {10.1039/C9CP04120F},
  url  = {http://dx.doi.org/10.1039/C9CP04120F},
  abstract  = {We describe the development and implementation of a coarse grained (CG) modelling approach where complex organic molecules, and particularly the \pi-conjugated ones often employed in organic electronics, are modelled in terms of connected sets of attractive--repulsive biaxial Gay--Berne ellipsoidal beads. The CG model is aimed at reproducing realistically large scale morphologies (e.g. up to 100 nm thick films) for the materials involved, while being able to generate, with a back-mapping procedure, atomistic coordinates suitable, with limited effort, to be applied for charge transport calculations. Detailed methodology and an application to the common hole transporter material \alpha-NPD are provided.}
}

CITE-CITE-CITE-CITE-CITE-CITE-CITE-CITE-CITE-CITE-CITE-CITE-CITE

PPPM/MOlC initialization ...
  G vector (1/distance) = 0.17092915
  grid = 15 15 15
  stencil order = 5
  estimated absolute RMS force accuracy = 0.015017444
  estimated relative force accuracy = 4.5224585e-05
  3d grid and FFT values/proc = 4950 960
Generated 0 of 0 mixed pair_coeff terms from arithmetic mixing rule
  update every 1 steps, delay 10 steps, check yes
Step         TotEng         E_vdwl         E_coul         E_long         E_bond         KinEng         PotEng          Temp          Press          Volume        Density        c_inter      c_msqdis[1]    c_msqdis[2]    c_msqdis[3]    c_msqdis[4]        CPU
0  -4812.8068     -5365.9772      14253.292     -14593.471      0              893.34877     -5706.1555      149.92496     -253.60342      154397.83      0.84010541    -5706.1555      9.2185792e-30  5.7571993e-30  2.4927271e-29  3.990305e-29   0
Averages over the last 26 of 51 rows, steps 50000 to 100000:
TotEng E_vdwl E_coul E_long E_bond KinEng PotEng Temp Press Volume Density c_inter c_msqdis[1] c_msqdis[2] c_msqdis[3] c_msqdis[4]
-3585.17 -4907.23 14123.6 -14591 0 1789.52 -5374.69 300.323 -9.48931 162341 0.799038 -5374.69 430.563 412.099 433.318 1275.98
Loop time of 1802.62 on 4 procs for 100000 steps with 1000 atoms

unfix NPH
unfix TEMP
